Proj Title=PRtest1
Current Plan=p02
Default Exp/Contr=0.3,0.1
SI Units
Geom File=g01
Unsteady File=u01
Unsteady File=u02
Plan File=p01
Plan File=p02
Y Axis Title=Elevation
X Axis Title(PF)=Main Channel Distance
X Axis Title(XS)=Station
BEGIN DESCRIPTION:

END DESCRIPTION:
DSS Start Date=
DSS Start Time=
DSS End Date=
DSS End Time=
DSS File=..\Users\Siamak.Farrokhzadeh\Pini Group\PINI-MENA - XXXXXX_HAFEET\07_Hydro\HECHMS\WADI SHA rev\100yCC_2024.dss
DSS File=dss
DSS Export Filename=
DSS Export Rating Curves= 0 
DSS Export Rating Curve Sorted= 0 
DSS Export Volume Flow Curves= 0 
DXF Filename=
DXF OffsetX= 0 
DXF OffsetY= 0 
DXF ScaleX= 1 
DXF ScaleY= 10 
GIS Export Profiles= 0 
